Circuit: * C:\Users\alexi\OneDrive\Bureau\Elec Anal\projetEnceinte\LT Spyce\Draft8.asc

.OP point found by inspection.

Date: Fri Feb 16 17:23:45 2024
Total elapsed time: 0.072 seconds.

tnom = 27
temp = 27
method = trap
totiter = 0
traniter = 0
tranpoints = 0
accept = 0
rejected = 0
matrix size = 6
fillins = 1
solver = Normal
Avg thread counts: 8.0/0.0/0.0/1.5
Matrix Compiler1:      15 opcodes
Matrix Compiler2:      34 opcodes
